@<TRIPOS>MOLECULE
18-crown-6
   42    42     0     0     0
SMALL
USER_CHARGES

@<TRIPOS>ATOM
      1 C1         -2.5540   -1.5024    2.1336 C.3       1 HST         0.1287
      2 C2         -2.5050   -2.4749    0.9661 C.3       1 HST         0.1287
      3 C3         -2.3546    0.7900    2.6771 C.3       1 HST         0.1287
      4 C4         -2.1009    2.1581    2.0646 C.3       1 HST         0.1287
      5 C5         -1.0311   -3.4501   -0.6045 C.3       1 HST         0.1287
      6 C6          0.4252   -3.4743   -1.0401 C.3       1 HST         0.1287
      7 C7         -0.4260    3.4747    1.0392 C.3       1 HST         0.1287
      8 C8          1.0304    3.4509    0.6039 C.3       1 HST         0.1287
      9 C9          2.1003   -2.1583   -2.0658 C.3       1 HST         0.1287
     10 C10         2.3551   -0.7898   -2.6771 C.3       1 HST         0.1287
     11 C11         2.5054    2.4743   -0.9648 C.3       1 HST         0.1287
     12 C12         2.5552    1.5020   -2.1324 C.3       1 HST         0.1287
     13 O1         -2.3200   -0.1850    1.6341 O.3       1 HST        -0.4131
     14 O2         -1.1584   -2.5488    0.4961 O.3       1 HST        -0.4131
     15 O3         -0.7426    2.2120    1.6266 O.3       1 HST        -0.4131
     16 O4          0.7422   -2.2116   -1.6272 O.3       1 HST        -0.4131
     17 O5          1.1585    2.5486   -0.4958 O.3       1 HST        -0.4131
     18 O6          2.3202    0.1846   -1.6336 O.3       1 HST        -0.4131
     19 H1         -3.5412   -1.5396    2.6067 H         1 HST         0.0389
     20 H2         -1.7812   -1.7503    2.8699 H         1 HST         0.0389
     21 H3         -2.8276   -3.4681    1.2964 H         1 HST         0.0389
     22 H4         -3.1513   -2.1275    0.1523 H         1 HST         0.0389
     23 H5         -1.5815    0.5532    3.4166 H         1 HST         0.0389
     24 H6         -3.3403    0.7739    3.1543 H         1 HST         0.0389
     25 H7         -2.7622    2.3209    1.2063 H         1 HST         0.0389
     26 H8         -2.2698    2.9379    2.8149 H         1 HST         0.0389
     27 H9         -1.6699   -3.1069   -1.4260 H         1 HST         0.0389
     28 H10        -1.3409   -4.4521   -0.2888 H         1 HST         0.0389
     29 H11         1.0791   -3.6440   -0.1774 H         1 HST         0.0389
     30 H12         0.5779   -4.2660   -1.7814 H         1 HST         0.0389
     31 H13        -0.5792    4.2666    1.7801 H         1 HST         0.0389
     32 H14        -1.0798    3.6438    0.1762 H         1 HST         0.0389
     33 H15         1.3397    4.4528    0.2873 H         1 HST         0.0389
     34 H16         1.6692    3.1088    1.4259 H         1 HST         0.0389
     35 H17         2.2683   -2.9376   -2.8170 H         1 HST         0.0389
     36 H18         2.7619   -2.3224   -1.2079 H         1 HST         0.0389
     37 H19         3.3412   -0.7739   -3.1539 H         1 HST         0.0389
     38 H20         1.5824   -0.5522   -3.4170 H         1 HST         0.0389
     39 H21         3.1510    2.1266   -0.1504 H         1 HST         0.0389
     40 H22         2.8287    3.4676   -1.2948 H         1 HST         0.0389
     41 H23         1.7833    1.7505   -2.8694 H         1 HST         0.0389
     42 H24         3.5430    1.5390   -2.6045 H         1 HST         0.0389
@<TRIPOS>BOND
     1    1    2 1
     2    1   13 1
     3    2   14 1
     4    3    4 1
     5    3   13 1
     6    4   15 1
     7    5    6 1
     8    5   14 1
     9    6   16 1
    10    7    8 1
    11    7   15 1
    12    8   17 1
    13    9   10 1
    14    9   16 1
    15   10   18 1
    16   11   12 1
    17   11   17 1
    18   12   18 1
    19    1   19 1
    20    1   20 1
    21    2   21 1
    22    2   22 1
    23    3   23 1
    24    3   24 1
    25    4   25 1
    26    4   26 1
    27    5   27 1
    28    5   28 1
    29    6   29 1
    30    6   30 1
    31    7   31 1
    32    7   32 1
    33    8   33 1
    34    8   34 1
    35    9   35 1
    36    9   36 1
    37   10   37 1
    38   10   38 1
    39   11   39 1
    40   11   40 1
    41   12   41 1
    42   12   42 1
@<TRIPOS>MOLECULE
18-crown-6
   42    42     0     0     0
SMALL
USER_CHARGES

@<TRIPOS>ATOM
      1 C1          2.1040    1.4369   -2.1022 C.3       1 HST         0.1287
      2 C2          3.1223    1.2822   -0.9836 C.3       1 HST         0.1287
      3 C3          0.6079    0.2217   -3.4716 C.3       1 HST         0.1287
      4 C4         -0.0739   -1.1343   -3.5910 C.3       1 HST         0.1287
      5 C5          3.2343    0.8893    1.3512 C.3       1 HST         0.1287
      6 C6          2.5342    0.1192    2.4597 C.3       1 HST         0.1287
      7 C7         -2.2209   -0.8374   -2.5958 C.3       1 HST         0.1287
      8 C8         -3.0379   -1.2145   -1.3691 C.3       1 HST         0.1287
      9 C9          0.5078    0.0264    3.6847 C.3       1 HST         0.1287
     10 C10        -0.9577    0.4001    3.5311 C.3       1 HST         0.1287
     11 C11        -3.3047   -0.7709    0.9352 C.3       1 HST         0.1287
     12 C12        -2.8014    0.1025    2.0741 C.3       1 HST         0.1287
     13 O1          1.5502    0.1556   -2.4001 O.3       1 HST        -0.4131
     14 O2          2.4473    0.7768    0.1665 O.3       1 HST        -0.4131
     15 O3         -0.9097   -1.3887   -2.4588 O.3       1 HST        -0.4131
     16 O4          1.2327    0.6738    2.6391 O.3       1 HST        -0.4131
     17 O5         -2.5719   -0.4561   -0.2509 O.3       1 HST        -0.4131
     18 O6         -1.4626   -0.2829    2.3813 O.3       1 HST        -0.4131
     19 H1          1.3013    2.1124   -1.7823 H         1 HST         0.0389
     20 H2          2.5847    1.8393   -3.0029 H         1 HST         0.0389
     21 H3          3.9013    0.5756   -1.2866 H         1 HST         0.0389
     22 H4          3.5725    2.2506   -0.7413 H         1 HST         0.0389
     23 H5          1.1343    0.4665   -4.3996 H         1 HST         0.0389
     24 H6         -0.1369    0.9925   -3.2516 H         1 HST         0.0389
     25 H7         -0.6927   -1.1703   -4.5065 H         1 HST         0.0389
     26 H8          0.6911   -1.9289   -3.6580 H         1 HST         0.0389
     27 H9          3.3294    1.9459    1.6219 H         1 HST         0.0389
     28 H10         4.2248    0.4607    1.1704 H         1 HST         0.0389
     29 H11         2.4416   -0.9385    2.1894 H         1 HST         0.0389
     30 H12         3.1006    0.2148    3.3922 H         1 HST         0.0389
     31 H13        -2.6927   -1.2471   -3.4961 H         1 HST         0.0389
     32 H14        -2.1449    0.2529   -2.6832 H         1 HST         0.0389
     33 H15        -4.0966   -0.9862   -1.5439 H         1 HST         0.0389
     34 H16        -2.9253   -2.2838   -1.1495 H         1 HST         0.0389
     35 H17         0.8798    0.3728    4.6517 H         1 HST         0.0389
     36 H18         0.6371   -1.0553    3.5967 H         1 HST         0.0389
     37 H19        -1.5167    0.0828    4.4143 H         1 HST         0.0389
     38 H20        -1.0640    1.4778    3.3845 H         1 HST         0.0389
     39 H21        -3.1599   -1.8323    1.1752 H         1 HST         0.0389
     40 H22        -4.3710   -0.5775    0.7624 H         1 HST         0.0389
     41 H23        -2.8140    1.1580    1.7794 H         1 HST         0.0389
     42 H24        -3.4319   -0.0419    2.9584 H         1 HST         0.0389
@<TRIPOS>BOND
     1    1    2 1
     2    1   13 1
     3    2   14 1
     4    3    4 1
     5    3   13 1
     6    4   15 1
     7    5    6 1
     8    5   14 1
     9    6   16 1
    10    7    8 1
    11    7   15 1
    12    8   17 1
    13    9   10 1
    14    9   16 1
    15   10   18 1
    16   11   12 1
    17   11   17 1
    18   12   18 1
    19    1   19 1
    20    1   20 1
    21    2   21 1
    22    2   22 1
    23    3   23 1
    24    3   24 1
    25    4   25 1
    26    4   26 1
    27    5   27 1
    28    5   28 1
    29    6   29 1
    30    6   30 1
    31    7   31 1
    32    7   32 1
    33    8   33 1
    34    8   34 1
    35    9   35 1
    36    9   36 1
    37   10   37 1
    38   10   38 1
    39   11   39 1
    40   11   40 1
    41   12   41 1
    42   12   42 1
@<TRIPOS>MOLECULE
18-crown-6
   42    42     0     0     0
SMALL
USER_CHARGES

@<TRIPOS>ATOM
      1 C1          2.2085   -2.7243    0.2921 C.3       1 HST         0.1287
      2 C2          2.1262   -2.4863   -1.2078 C.3       1 HST         0.1287
      3 C3          1.0105   -2.4892    2.3135 C.3       1 HST         0.1287
      4 C4         -0.2840   -1.9543    2.9077 C.3       1 HST         0.1287
      5 C5          2.2145   -0.7705   -2.8385 C.3       1 HST         0.1287
      6 C6          2.0960    0.7381   -2.9833 C.3       1 HST         0.1287
      7 C7         -1.3826    0.0776    3.5021 C.3       1 HST         0.1287
      8 C8         -2.5037    0.2311    2.4835 C.3       1 HST         0.1287
      9 C9          0.6079    2.4953   -2.4243 C.3       1 HST         0.1287
     10 C10        -0.8576    2.7838   -2.1398 C.3       1 HST         0.1287
     11 C11        -3.0152    1.2776    0.4259 C.3       1 HST         0.1287
     12 C12        -2.5478    2.3616   -0.5324 C.3       1 HST         0.1287
     13 O1          1.0097   -2.2453    0.9054 O.3       1 HST        -0.4131
     14 O2          2.1536   -1.0797   -1.4441 O.3       1 HST        -0.4131
     15 O3         -0.2303   -0.5264    2.9086 O.3       1 HST        -0.4131
     16 O4          0.7493    1.0991   -2.6778 O.3       1 HST        -0.4131
     17 O5         -2.1024    1.2070    1.5208 O.3       1 HST        -0.4131
     18 O6         -1.2528    2.0048   -1.0116 O.3       1 HST        -0.4131
     19 H1          2.3120   -3.7982    0.4924 H         1 HST         0.0389
     20 H2          3.0676   -2.1889    0.7171 H         1 HST         0.0389
     21 H3          2.9831   -2.9540   -1.7049 H         1 HST         0.0389
     22 H4          1.1945   -2.9011   -1.6091 H         1 HST         0.0389
     23 H5          1.8745   -1.9849    2.7648 H         1 HST         0.0389
     24 H6          1.0825   -3.5691    2.4927 H         1 HST         0.0389
     25 H7         -1.1423   -2.2813    2.3091 H         1 HST         0.0389
     26 H8         -0.3951   -2.3122    3.9375 H         1 HST         0.0389
     27 H9          1.3904   -1.2700   -3.3538 H         1 HST         0.0389
     28 H10         3.1716   -1.1085   -3.2421 H         1 HST         0.0389
     29 H11         2.7712    1.2425   -2.2875 H         1 HST         0.0389
     30 H12         2.3257    1.0315   -4.0103 H         1 HST         0.0389
     31 H13        -1.1034    1.0709    3.8981 H         1 HST         0.0389
     32 H14        -1.7193   -0.5507    4.3474 H         1 HST         0.0389
     33 H15        -2.6792   -0.7241    1.9793 H         1 HST         0.0389
     34 H16        -3.4221    0.5670    2.9756 H         1 HST         0.0389
     35 H17         0.9323    3.0585   -3.3057 H         1 HST         0.0389
     36 H18         1.2249    2.7696   -1.5616 H         1 HST         0.0389
     37 H19        -0.9889    3.8458   -1.9108 H         1 HST         0.0389
     38 H20        -1.4747    2.5093   -3.0014 H         1 HST         0.0389
     39 H21        -4.0172    1.5117    0.8074 H         1 HST         0.0389
     40 H22        -3.0364    0.3101   -0.0904 H         1 HST         0.0389
     41 H23        -3.2362    2.4438   -1.3801 H         1 HST         0.0389
     42 H24        -2.4888    3.3203   -0.0073 H         1 HST         0.0389
@<TRIPOS>BOND
     1    1    2 1
     2    1   13 1
     3    2   14 1
     4    3    4 1
     5    3   13 1
     6    4   15 1
     7    5    6 1
     8    5   14 1
     9    6   16 1
    10    7    8 1
    11    7   15 1
    12    8   17 1
    13    9   10 1
    14    9   16 1
    15   10   18 1
    16   11   12 1
    17   11   17 1
    18   12   18 1
    19    1   19 1
    20    1   20 1
    21    2   21 1
    22    2   22 1
    23    3   23 1
    24    3   24 1
    25    4   25 1
    26    4   26 1
    27    5   27 1
    28    5   28 1
    29    6   29 1
    30    6   30 1
    31    7   31 1
    32    7   32 1
    33    8   33 1
    34    8   34 1
    35    9   35 1
    36    9   36 1
    37   10   37 1
    38   10   38 1
    39   11   39 1
    40   11   40 1
    41   12   41 1
    42   12   42 1
@<TRIPOS>MOLECULE
18-crown-6
   42    42     0     0     0
SMALL
USER_CHARGES

@<TRIPOS>ATOM
      1 C1         -2.4324    0.6738    2.3785 C.3       1 HST         0.1287
      2 C2         -2.2446   -0.8310    2.4942 C.3       1 HST         0.1287
      3 C3         -2.5804    2.4384    0.8136 C.3       1 HST         0.1287
      4 C4         -2.7345    2.7494   -0.6700 C.3       1 HST         0.1287
      5 C5         -0.6381   -2.5511    2.2670 C.3       1 HST         0.1287
      6 C6          0.8509   -2.7934    2.0745 C.3       1 HST         0.1287
      7 C7         -1.2454    1.4170   -1.9715 C.3       1 HST         0.1287
      8 C8          0.1180    1.4547   -2.6449 C.3       1 HST         0.1287
      9 C9          2.5911   -2.6187    0.4797 C.3       1 HST         0.1287
     10 C10         2.8777   -2.1084   -0.9232 C.3       1 HST         0.1287
     11 C11         2.4445    1.3510   -2.1208 C.3       1 HST         0.1287
     12 C12         2.7917   -0.1284   -2.2240 C.3       1 HST         0.1287
     13 O1         -2.4346    1.0302    0.9948 O.3       1 HST        -0.4131
     14 O2         -0.8827   -1.1448    2.1991 O.3       1 HST        -0.4131
     15 O3         -1.4746    2.6749   -1.3381 O.3       1 HST        -0.4131
     16 O4          1.1968   -2.4396    0.7364 O.3       1 HST        -0.4131
     17 O5          1.1153    1.5210   -1.6262 O.3       1 HST        -0.4131
     18 O6          2.6813   -0.6949   -0.9192 O.3       1 HST        -0.4131
     19 H1         -3.3893    0.9640    2.8277 H         1 HST         0.0389
     20 H2         -1.6139    1.2007    2.8838 H         1 HST         0.0389
     21 H3         -2.4776   -1.1567    3.5144 H         1 HST         0.0389
     22 H4         -2.8959   -1.3528    1.7830 H         1 HST         0.0389
     23 H5         -1.6929    2.9471    1.2184 H         1 HST         0.0389
     24 H6         -3.4717    2.7827    1.3578 H         1 HST         0.0389
     25 H7         -3.4314    2.0309   -1.1385 H         1 HST         0.0389
     26 H8         -3.1480    3.7662   -0.7932 H         1 HST         0.0389
     27 H9         -1.2118   -3.0539    1.4799 H         1 HST         0.0389
     28 H10        -0.9512   -2.9251    3.2482 H         1 HST         0.0389
     29 H11         1.4307   -2.1777    2.7715 H         1 HST         0.0389
     30 H12         1.0785   -3.8522    2.2395 H         1 HST         0.0389
     31 H13        -2.0247    1.2422   -2.7220 H         1 HST         0.0389
     32 H14        -1.2759    0.6226   -1.2165 H         1 HST         0.0389
     33 H15         0.2643    0.5461   -3.2367 H         1 HST         0.0389
     34 H16         0.2011    2.3362   -3.2886 H         1 HST         0.0389
     35 H17         2.8370   -3.6819    0.5458 H         1 HST         0.0389
     36 H18         3.1680   -2.0536    1.2171 H         1 HST         0.0389
     37 H19         3.9127   -2.3299   -1.1945 H         1 HST         0.0389
     38 H20         2.1936   -2.5655   -1.6428 H         1 HST         0.0389
     39 H21         3.1481    1.8603   -1.4391 H         1 HST         0.0389
     40 H22         2.5208    1.8191   -3.1173 H         1 HST         0.0389
     41 H23         2.0969   -0.6359   -2.8983 H         1 HST         0.0389
     42 H24         3.8170   -0.2431   -2.5843 H         1 HST         0.0389
@<TRIPOS>BOND
     1    1    2 1
     2    1   13 1
     3    2   14 1
     4    3    4 1
     5    3   13 1
     6    4   15 1
     7    5    6 1
     8    5   14 1
     9    6   16 1
    10    7    8 1
    11    7   15 1
    12    8   17 1
    13    9   10 1
    14    9   16 1
    15   10   18 1
    16   11   12 1
    17   11   17 1
    18   12   18 1
    19    1   19 1
    20    1   20 1
    21    2   21 1
    22    2   22 1
    23    3   23 1
    24    3   24 1
    25    4   25 1
    26    4   26 1
    27    5   27 1
    28    5   28 1
    29    6   29 1
    30    6   30 1
    31    7   31 1
    32    7   32 1
    33    8   33 1
    34    8   34 1
    35    9   35 1
    36    9   36 1
    37   10   37 1
    38   10   38 1
    39   11   39 1
    40   11   40 1
    41   12   41 1
    42   12   42 1
@<TRIPOS>MOLECULE
18-crown-6
   42    42     0     0     0
SMALL
USER_CHARGES

@<TRIPOS>ATOM
      1 C1          0.4787    0.1045   -3.1975 C.3       1 HST         0.1287
      2 C2          1.6609    1.0685   -3.1904 C.3       1 HST         0.1287
      3 C3         -1.9098    0.1548   -3.0458 C.3       1 HST         0.1287
      4 C4         -2.1412   -1.1945   -2.3778 C.3       1 HST         0.1287
      5 C5          1.6452    2.3584   -1.1827 C.3       1 HST         0.1287
      6 C6          2.3024    2.4527    0.1857 C.3       1 HST         0.1287
      7 C7         -2.6324   -2.2100   -0.3028 C.3       1 HST         0.1287
      8 C8         -2.7084   -1.9430    1.1923 C.3       1 HST         0.1287
      9 C9          2.3022    1.4131    2.3140 C.3       1 HST         0.1287
     10 C10         1.9425    0.1073    3.0040 C.3       1 HST         0.1287
     11 C11        -1.3529   -1.5121    3.0868 C.3       1 HST         0.1287
     12 C12         0.0966   -1.2962    3.4904 C.3       1 HST         0.1287
     13 O1         -0.6730    0.7625   -2.6733 O.3       1 HST        -0.4131
     14 O2          2.1888    1.2343   -1.8740 O.3       1 HST        -0.4131
     15 O3         -2.2658   -0.9991   -0.9685 O.3       1 HST        -0.4131
     16 O4          1.9188    1.3066    0.9429 O.3       1 HST        -0.4131
     17 O5         -1.3813   -1.7457    1.6774 O.3       1 HST        -0.4131
     18 O6          0.5286   -0.0620    2.9194 O.3       1 HST        -0.4131
     19 H1          0.2740   -0.2198   -4.2273 H         1 HST         0.0389
     20 H2          0.7039   -0.7762   -2.5790 H         1 HST         0.0389
     21 H3          2.4580    0.6788   -3.8517 H         1 HST         0.0389
     22 H4          1.3462    2.0570   -3.5771 H         1 HST         0.0389
     23 H5         -1.9282    0.0369   -4.1548 H         1 HST         0.0389
     24 H6         -2.7426    0.8458   -2.7788 H         1 HST         0.0389
     25 H7         -3.0609   -1.6556   -2.7599 H         1 HST         0.0389
     26 H8         -1.2897   -1.8568   -2.5772 H         1 HST         0.0389
     27 H9          0.5616    2.2265   -1.0771 H         1 HST         0.0389
     28 H10         1.8506    3.2699   -1.7562 H         1 HST         0.0389
     29 H11         3.3924    2.4703    0.0846 H         1 HST         0.0389
     30 H12         1.9616    3.3572    0.6988 H         1 HST         0.0389
     31 H13        -1.8747   -2.9763   -0.5052 H         1 HST         0.0389
     32 H14        -3.6055   -2.5467   -0.6807 H         1 HST         0.0389
     33 H15        -3.3000   -1.0412    1.3782 H         1 HST         0.0389
     34 H16        -3.1583   -2.7965    1.7098 H         1 HST         0.0389
     35 H17         1.7589    2.2405    2.7786 H         1 HST         0.0389
     36 H18         3.3797    1.5923    2.3738 H         1 HST         0.0389
     37 H19         2.4384   -0.7276    2.5000 H         1 HST         0.0389
     38 H20         2.2397    0.1375    4.0568 H         1 HST         0.0389
     39 H21        -1.7683   -2.3807    3.6038 H         1 HST         0.0389
     40 H22        -1.9396   -0.6199    3.3174 H         1 HST         0.0389
     41 H23         0.1856   -1.2408    4.5787 H         1 HST         0.0389
     42 H24         0.7146   -2.1105    3.1038 H         1 HST         0.0389
@<TRIPOS>BOND
     1    1    2 1
     2    1   13 1
     3    2   14 1
     4    3    4 1
     5    3   13 1
     6    4   15 1
     7    5    6 1
     8    5   14 1
     9    6   16 1
    10    7    8 1
    11    7   15 1
    12    8   17 1
    13    9   10 1
    14    9   16 1
    15   10   18 1
    16   11   12 1
    17   11   17 1
    18   12   18 1
    19    1   19 1
    20    1   20 1
    21    2   21 1
    22    2   22 1
    23    3   23 1
    24    3   24 1
    25    4   25 1
    26    4   26 1
    27    5   27 1
    28    5   28 1
    29    6   29 1
    30    6   30 1
    31    7   31 1
    32    7   32 1
    33    8   33 1
    34    8   34 1
    35    9   35 1
    36    9   36 1
    37   10   37 1
    38   10   38 1
    39   11   39 1
    40   11   40 1
    41   12   41 1
    42   12   42 1
@<TRIPOS>MOLECULE
18-crown-6
   42    42     0     0     0
SMALL
USER_CHARGES

@<TRIPOS>ATOM
      1 C1          1.4931    1.5663    3.0534 C.3       1 HST         0.1287
      2 C2          0.5109    0.4603    3.4048 C.3       1 HST         0.1287
      3 C3          2.8693    2.2422    1.2446 C.3       1 HST         0.1287
      4 C4          3.5768    1.7120    0.0032 C.3       1 HST         0.1287
      5 C5         -1.3038   -0.7144    2.4237 C.3       1 HST         0.1287
      6 C6         -2.1843   -0.6924    1.1854 C.3       1 HST         0.1287
      7 C7          1.7318    1.9153   -1.5147 C.3       1 HST         0.1287
      8 C8          1.1101    1.1930   -2.7021 C.3       1 HST         0.1287
      9 C9         -3.6134   -2.0712   -0.1375 C.3       1 HST         0.1287
     10 C10        -2.7157   -2.5542   -1.2733 C.3       1 HST         0.1287
     11 C11        -0.3304   -0.5860   -3.2929 C.3       1 HST         0.1287
     12 C12        -1.0035   -1.8348   -2.7433 C.3       1 HST         0.1287
     13 O1          2.1888    1.1600    1.8729 O.3       1 HST        -0.4131
     14 O2         -0.4791    0.4422    2.3776 O.3       1 HST        -0.4131
     15 O3          2.6976    1.0552   -0.9121 O.3       1 HST        -0.4131
     16 O4         -2.8742   -1.9305    1.0793 O.3       1 HST        -0.4131
     17 O5          0.3600    0.0729   -2.2281 O.3       1 HST        -0.4131
     18 O6         -2.0339   -1.4358   -1.8408 O.3       1 HST        -0.4131
     19 H1          0.9531    2.4931    2.8540 H         1 HST         0.0389
     20 H2          2.2111    1.7111    3.8625 H         1 HST         0.0389
     21 H3          1.0263   -0.4993    3.4293 H         1 HST         0.0389
     22 H4          0.0337    0.6642    4.3632 H         1 HST         0.0389
     23 H5          3.5981    2.6669    1.9442 H         1 HST         0.0389
     24 H6          2.1435    3.0100    0.9555 H         1 HST         0.0389
     25 H7          4.0838    2.5497   -0.5311 H         1 HST         0.0389
     26 H8          4.3728    0.9946    0.3108 H         1 HST         0.0389
     27 H9         -1.9169   -0.6880    3.3272 H         1 HST         0.0389
     28 H10        -0.6785   -1.6095    2.4170 H         1 HST         0.0389
     29 H11        -2.9165    0.1254    1.2537 H         1 HST         0.0389
     30 H12        -1.5617   -0.5451    0.2914 H         1 HST         0.0389
     31 H13         2.2260    2.8319   -1.8567 H         1 HST         0.0389
     32 H14         0.9613    2.1660   -0.7759 H         1 HST         0.0389
     33 H15         0.4394    1.8749   -3.2407 H         1 HST         0.0389
     34 H16         1.8935    0.8376   -3.3847 H         1 HST         0.0389
     35 H17        -4.0538   -1.0936   -0.4056 H         1 HST         0.0389
     36 H18        -4.4377   -2.7899    0.0263 H         1 HST         0.0389
     37 H19        -1.9788   -3.2680   -0.8823 H         1 HST         0.0389
     38 H20        -3.3183   -3.0420   -2.0513 H         1 HST         0.0389
     39 H21         0.3899   -0.8537   -4.0759 H         1 HST         0.0389
     40 H22        -1.0869    0.0919   -3.7063 H         1 HST         0.0389
     41 H23        -1.4450   -2.4199   -3.5586 H         1 HST         0.0389
     42 H24        -0.2687   -2.4460   -2.2070 H         1 HST         0.0389
@<TRIPOS>BOND
     1    1    2 1
     2    1   13 1
     3    2   14 1
     4    3    4 1
     5    3   13 1
     6    4   15 1
     7    5    6 1
     8    5   14 1
     9    6   16 1
    10    7    8 1
    11    7   15 1
    12    8   17 1
    13    9   10 1
    14    9   16 1
    15   10   18 1
    16   11   12 1
    17   11   17 1
    18   12   18 1
    19    1   19 1
    20    1   20 1
    21    2   21 1
    22    2   22 1
    23    3   23 1
    24    3   24 1
    25    4   25 1
    26    4   26 1
    27    5   27 1
    28    5   28 1
    29    6   29 1
    30    6   30 1
    31    7   31 1
    32    7   32 1
    33    8   33 1
    34    8   34 1
    35    9   35 1
    36    9   36 1
    37   10   37 1
    38   10   38 1
    39   11   39 1
    40   11   40 1
    41   12   41 1
    42   12   42 1
@<TRIPOS>MOLECULE
18-crown-6
   42    42     0     0     0
SMALL
USER_CHARGES

@<TRIPOS>ATOM
      1 C1          2.2775    1.5072    1.6631 C.3       1 HST         0.1287
      2 C2          3.1564    0.8896    0.5829 C.3       1 HST         0.1287
      3 C3          0.4875    1.0091    3.1310 C.3       1 HST         0.1287
      4 C4         -0.5292   -0.0707    3.4698 C.3       1 HST         0.1287
      5 C5          2.5034    1.8579   -1.4945 C.3       1 HST         0.1287
      6 C6          1.5793    1.6121   -2.6772 C.3       1 HST         0.1287
      7 C7         -2.4423   -1.1738    2.5765 C.3       1 HST         0.1287
      8 C8         -1.9310   -2.2960    1.6836 C.3       1 HST         0.1287
      9 C9         -0.7435    1.3087   -3.1596 C.3       1 HST         0.1287
     10 C10        -0.8715   -0.2055   -3.2742 C.3       1 HST         0.1287
     11 C11        -1.2814   -2.6545   -0.5678 C.3       1 HST         0.1287
     12 C12        -1.4588   -2.1021   -1.9736 C.3       1 HST         0.1287
     13 O1          1.2636    0.5633    2.0163 O.3       1 HST        -0.4131
     14 O2          2.4232    0.7223   -0.6301 O.3       1 HST        -0.4131
     15 O3         -1.5633   -0.0489    2.4847 O.3       1 HST        -0.4131
     16 O4          0.2388    1.6821   -2.1961 O.3       1 HST        -0.4131
     17 O5         -2.0598   -1.8645    0.3286 O.3       1 HST        -0.4131
     18 O6         -1.0489   -0.7362   -1.9635 O.3       1 HST        -0.4131
     19 H1          2.8823    1.7356    2.5468 H         1 HST         0.0389
     20 H2          1.8034    2.4221    1.2914 H         1 HST         0.0389
     21 H3          4.0237    1.5460    0.3926 H         1 HST         0.0389
     22 H4          3.5304   -0.0957    0.9147 H         1 HST         0.0389
     23 H5         -0.0207    1.9420    2.8648 H         1 HST         0.0389
     24 H6          1.1488    1.1779    3.9869 H         1 HST         0.0389
     25 H7         -0.0521   -1.0578    3.4685 H         1 HST         0.0389
     26 H8         -0.9650    0.1266    4.4557 H         1 HST         0.0389
     27 H9          3.5356    1.9785   -1.8348 H         1 HST         0.0389
     28 H10         2.1811    2.7496   -0.9506 H         1 HST         0.0389
     29 H11         1.7290    2.3763   -3.4430 H         1 HST         0.0389
     30 H12         1.7649    0.6194   -3.0922 H         1 HST         0.0389
     31 H13        -3.4486   -0.8716    2.2527 H         1 HST         0.0389
     32 H14        -2.4863   -1.5093    3.6232 H         1 HST         0.0389
     33 H15        -0.8796   -2.4937    1.9029 H         1 HST         0.0389
     34 H16        -2.5245   -3.2012    1.8320 H         1 HST         0.0389
     35 H17        -0.4608    1.7302   -4.1448 H         1 HST         0.0389
     36 H18        -1.7178    1.7503   -2.8677 H         1 HST         0.0389
     37 H19        -1.7407   -0.4568   -3.8894 H         1 HST         0.0389
     38 H20         0.0347   -0.6304   -3.7174 H         1 HST         0.0389
     39 H21        -1.6229   -3.6949   -0.5212 H         1 HST         0.0389
     40 H22        -0.2264   -2.5984   -0.2781 H         1 HST         0.0389
     41 H23        -0.8403   -2.6595   -2.6830 H         1 HST         0.0389
     42 H24        -2.5109   -2.1631   -2.2656 H         1 HST         0.0389
@<TRIPOS>BOND
     1    1    2 1
     2    1   13 1
     3    2   14 1
     4    3    4 1
     5    3   13 1
     6    4   15 1
     7    5    6 1
     8    5   14 1
     9    6   16 1
    10    7    8 1
    11    7   15 1
    12    8   17 1
    13    9   10 1
    14    9   16 1
    15   10   18 1
    16   11   12 1
    17   11   17 1
    18   12   18 1
    19    1   19 1
    20    1   20 1
    21    2   21 1
    22    2   22 1
    23    3   23 1
    24    3   24 1
    25    4   25 1
    26    4   26 1
    27    5   27 1
    28    5   28 1
    29    6   29 1
    30    6   30 1
    31    7   31 1
    32    7   32 1
    33    8   33 1
    34    8   34 1
    35    9   35 1
    36    9   36 1
    37   10   37 1
    38   10   38 1
    39   11   39 1
    40   11   40 1
    41   12   41 1
    42   12   42 1
@<TRIPOS>MOLECULE
18-crown-6
   42    42     0     0     0
SMALL
USER_CHARGES

@<TRIPOS>ATOM
      1 C1         -0.3232   -0.6373    3.1357 C.3       1 HST         0.1287
      2 C2         -1.6604    0.0263    2.8467 C.3       1 HST         0.1287
      3 C3          1.1659   -2.2845    2.3188 C.3       1 HST         0.1287
      4 C4          1.2879   -3.3945    1.2826 C.3       1 HST         0.1287
      5 C5         -2.7565    1.4311    1.2908 C.3       1 HST         0.1287
      6 C6         -2.5034    2.3374    0.0954 C.3       1 HST         0.1287
      7 C7          2.4968   -2.3983   -0.5185 C.3       1 HST         0.1287
      8 C8          2.2760   -1.7557   -1.8816 C.3       1 HST         0.1287
      9 C9         -1.9526    2.2616   -2.2259 C.3       1 HST         0.1287
     10 C10        -0.5927    2.9517   -2.2825 C.3       1 HST         0.1287
     11 C11         2.1243    0.5838   -1.4414 C.3       1 HST         0.1287
     12 C12         1.0994    1.6782   -1.1899 C.3       1 HST         0.1287
     13 O1         -0.1022   -1.6489    2.1518 O.3       1 HST        -0.4131
     14 O2         -1.5198    0.8281    1.6731 O.3       1 HST        -0.4131
     15 O3          1.2353   -2.8693   -0.0434 O.3       1 HST        -0.4131
     16 O4         -2.1459    1.5223   -1.0212 O.3       1 HST        -0.4131
     17 O5          1.4225   -0.6162   -1.7676 O.3       1 HST        -0.4131
     18 O6          0.4487    1.9842   -2.4228 O.3       1 HST        -0.4131
     19 H1          0.4796    0.1048    3.0779 H         1 HST         0.0389
     20 H2         -0.3323   -1.0980    4.1293 H         1 HST         0.0389
     21 H3         -2.4244   -0.7384    2.6727 H         1 HST         0.0389
     22 H4         -1.9588    0.6650    3.6850 H         1 HST         0.0389
     23 H5          1.2304   -2.6995    3.3304 H         1 HST         0.0389
     24 H6          1.9624   -1.5487    2.1682 H         1 HST         0.0389
     25 H7          2.2442   -3.9351    1.4161 H         1 HST         0.0389
     26 H8          0.4616   -4.1173    1.4169 H         1 HST         0.0389
     27 H9         -3.1493    2.0118    2.1334 H         1 HST         0.0389
     28 H10        -3.4717    0.6475    1.0171 H         1 HST         0.0389
     29 H11        -3.4067    2.9071   -0.1493 H         1 HST         0.0389
     30 H12        -1.6811    3.0252    0.3192 H         1 HST         0.0389
     31 H13         3.1859   -3.2415   -0.6142 H         1 HST         0.0389
     32 H14         2.8972   -1.6651    0.1874 H         1 HST         0.0389
     33 H15         3.2459   -1.4388   -2.3024 H         1 HST         0.0389
     34 H16         1.8140   -2.4815   -2.5739 H         1 HST         0.0389
     35 H17        -2.7563    3.0260   -2.3115 H         1 HST         0.0389
     36 H18        -2.0614    1.5697   -3.0910 H         1 HST         0.0389
     37 H19        -0.5643    3.6404   -3.1427 H         1 HST         0.0389
     38 H20        -0.4228    3.5309   -1.3596 H         1 HST         0.0389
     39 H21         2.7776    0.8569   -2.2762 H         1 HST         0.0389
     40 H22         2.7213    0.4199   -0.5391 H         1 HST         0.0389
     41 H23         0.3517    1.3409   -0.4624 H         1 HST         0.0389
     42 H24         1.6012    2.5768   -0.8129 H         1 HST         0.0389
@<TRIPOS>BOND
     1    1    2 1
     2    1   13 1
     3    2   14 1
     4    3    4 1
     5    3   13 1
     6    4   15 1
     7    5    6 1
     8    5   14 1
     9    6   16 1
    10    7    8 1
    11    7   15 1
    12    8   17 1
    13    9   10 1
    14    9   16 1
    15   10   18 1
    16   11   12 1
    17   11   17 1
    18   12   18 1
    19    1   19 1
    20    1   20 1
    21    2   21 1
    22    2   22 1
    23    3   23 1
    24    3   24 1
    25    4   25 1
    26    4   26 1
    27    5   27 1
    28    5   28 1
    29    6   29 1
    30    6   30 1
    31    7   31 1
    32    7   32 1
    33    8   33 1
    34    8   34 1
    35    9   35 1
    36    9   36 1
    37   10   37 1
    38   10   38 1
    39   11   39 1
    40   11   40 1
    41   12   41 1
    42   12   42 1
@<TRIPOS>MOLECULE
18-crown-6
   42    42     0     0     0
SMALL
USER_CHARGES

@<TRIPOS>ATOM
      1 C1         -0.0658   -2.1378   -1.6836 C.3       1 HST         0.1287
      2 C2         -1.2582   -1.2176   -1.8989 C.3       1 HST         0.1287
      3 C3          2.1582   -2.1638   -0.8740 C.3       1 HST         0.1287
      4 C4          3.2668   -1.2549   -0.3620 C.3       1 HST         0.1287
      5 C5         -2.0018    0.6092   -3.2505 C.3       1 HST         0.1287
      6 C6         -1.7094    1.9195   -2.5293 C.3       1 HST         0.1287
      7 C7          2.8517   -1.2825    2.0103 C.3       1 HST         0.1287
      8 C8          1.4133   -1.4765    2.4692 C.3       1 HST         0.1287
      9 C9         -1.6067    2.8827   -0.3666 C.3       1 HST         0.1287
     10 C10        -1.8811    2.5638    1.0950 C.3       1 HST         0.1287
     11 C11        -0.5627   -0.2880    3.0012 C.3       1 HST         0.1287
     12 C12        -1.1953    1.0829    2.8215 C.3       1 HST         0.1287
     13 O1          1.0201   -1.3580   -1.1814 O.3       1 HST        -0.4131
     14 O2         -0.9679   -0.3446   -2.9909 O.3       1 HST        -0.4131
     15 O3          2.8772   -0.5250    0.8002 O.3       1 HST        -0.4131
     16 O4         -2.0427    1.7732   -1.1513 O.3       1 HST        -0.4131
     17 O5          0.8195   -0.1924    2.6563 O.3       1 HST        -0.4131
     18 O6         -1.1152    1.4097    1.4350 O.3       1 HST        -0.4131
     19 H1         -0.3226   -2.9128   -0.9539 H         1 HST         0.0389
     20 H2          0.2325   -2.6032   -2.6294 H         1 HST         0.0389
     21 H3         -2.1470   -1.8123   -2.1376 H         1 HST         0.0389
     22 H4         -1.4453   -0.6192   -0.9996 H         1 HST         0.0389
     23 H5          2.4832   -2.6884   -1.7791 H         1 HST         0.0389
     24 H6          1.8888   -2.8909   -0.1009 H         1 HST         0.0389
     25 H7          4.1696   -1.8568   -0.1193 H         1 HST         0.0389
     26 H8          3.5515   -0.5350   -1.1592 H         1 HST         0.0389
     27 H9         -2.9653    0.1939   -2.9097 H         1 HST         0.0389
     28 H10        -2.0599    0.7898   -4.3367 H         1 HST         0.0389
     29 H11        -0.6452    2.1727   -2.6189 H         1 HST         0.0389
     30 H12        -2.3145    2.7238   -2.9660 H         1 HST         0.0389
     31 H13         3.4181   -0.7437    2.7854 H         1 HST         0.0389
     32 H14         3.3297   -2.2588    1.8327 H         1 HST         0.0389
     33 H15         0.8524   -2.0273    1.7060 H         1 HST         0.0389
     34 H16         1.3869   -2.0274    3.4165 H         1 HST         0.0389
     35 H17        -2.1639    3.7766   -0.6620 H         1 HST         0.0389
     36 H18        -0.5358    3.0398   -0.5281 H         1 HST         0.0389
     37 H19        -1.5715    3.4028    1.7218 H         1 HST         0.0389
     38 H20        -2.9420    2.3508    1.2459 H         1 HST         0.0389
     39 H21        -0.6520   -0.6162    4.0423 H         1 HST         0.0389
     40 H22        -1.0513   -1.0115    2.3405 H         1 HST         0.0389
     41 H23        -2.2427    1.0628    3.1279 H         1 HST         0.0389
     42 H24        -0.6439    1.8246    3.4017 H         1 HST         0.0389
@<TRIPOS>BOND
     1    1    2 1
     2    1   13 1
     3    2   14 1
     4    3    4 1
     5    3   13 1
     6    4   15 1
     7    5    6 1
     8    5   14 1
     9    6   16 1
    10    7    8 1
    11    7   15 1
    12    8   17 1
    13    9   10 1
    14    9   16 1
    15   10   18 1
    16   11   12 1
    17   11   17 1
    18   12   18 1
    19    1   19 1
    20    1   20 1
    21    2   21 1
    22    2   22 1
    23    3   23 1
    24    3   24 1
    25    4   25 1
    26    4   26 1
    27    5   27 1
    28    5   28 1
    29    6   29 1
    30    6   30 1
    31    7   31 1
    32    7   32 1
    33    8   33 1
    34    8   34 1
    35    9   35 1
    36    9   36 1
    37   10   37 1
    38   10   38 1
    39   11   39 1
    40   11   40 1
    41   12   41 1
    42   12   42 1
@<TRIPOS>MOLECULE
18-crown-6
   42    42     0     0     0
SMALL
USER_CHARGES

@<TRIPOS>ATOM
      1 C1         -1.4156   -2.2943    2.2727 C.3       1 HST         0.1287
      2 C2         -1.9270   -3.2234    1.1780 C.3       1 HST         0.1287
      3 C3         -1.6084   -0.0544    3.0855 C.3       1 HST         0.1287
      4 C4         -0.1632    0.4264    2.9981 C.3       1 HST         0.1287
      5 C5         -1.9033   -2.1288   -0.9424 C.3       1 HST         0.1287
      6 C6         -1.0509   -1.9576   -2.1901 C.3       1 HST         0.1287
      7 C7         -0.3283    2.3196    1.5494 C.3       1 HST         0.1287
      8 C8          0.1414    2.8115    0.1889 C.3       1 HST         0.1287
      9 C9          0.9305   -0.9363   -2.9808 C.3       1 HST         0.1287
     10 C10         2.1323   -0.1253   -2.5237 C.3       1 HST         0.1287
     11 C11         2.1402    3.2568   -1.0374 C.3       1 HST         0.1287
     12 C12         2.7299    1.9824   -1.6276 C.3       1 HST         0.1287
     13 O1         -1.9306   -0.9835    2.0508 O.3       1 HST        -0.4131
     14 O2         -1.2181   -2.9991   -0.0420 O.3       1 HST        -0.4131
     15 O3          0.1365    0.9795    1.7173 O.3       1 HST        -0.4131
     16 O4          0.1083   -1.2000   -1.8428 O.3       1 HST        -0.4131
     17 O5          1.5592    2.9741    0.2369 O.3       1 HST        -0.4131
     18 O6          1.6673    1.1525   -2.0908 O.3       1 HST        -0.4131
     19 H1         -1.7546   -2.6566    3.2521 H         1 HST         0.0389
     20 H2         -0.3179   -2.2583    2.2578 H         1 HST         0.0389
     21 H3         -1.7866   -4.2727    1.4887 H         1 HST         0.0389
     22 H4         -3.0032   -3.0496    1.0042 H         1 HST         0.0389
     23 H5         -1.7876   -0.5384    4.0689 H         1 HST         0.0389
     24 H6         -2.2913    0.8175    3.0113 H         1 HST         0.0389
     25 H7          0.0272    1.1961    3.7739 H         1 HST         0.0389
     26 H8          0.5201   -0.4252    3.1914 H         1 HST         0.0389
     27 H9         -2.0645   -1.1606   -0.4546 H         1 HST         0.0389
     28 H10        -2.8684   -2.5726   -1.2106 H         1 HST         0.0389
     29 H11        -0.7402   -2.9343   -2.5769 H         1 HST         0.0389
     30 H12        -1.6187   -1.4193   -2.9562 H         1 HST         0.0389
     31 H13         0.0924    2.9499    2.3373 H         1 HST         0.0389
     32 H14        -1.4206    2.3313    1.6031 H         1 HST         0.0389
     33 H15        -0.1126    2.0748   -0.5798 H         1 HST         0.0389
     34 H16        -0.3235    3.7737   -0.0502 H         1 HST         0.0389
     35 H17         0.3557   -0.3656   -3.7174 H         1 HST         0.0389
     36 H18         1.2549   -1.8866   -3.4180 H         1 HST         0.0389
     37 H19         2.6267   -0.6326   -1.6895 H         1 HST         0.0389
     38 H20         2.8385    0.0089   -3.3494 H         1 HST         0.0389
     39 H21         2.9258    4.0176   -0.9128 H         1 HST         0.0389
     40 H22         1.3628    3.6504   -1.7092 H         1 HST         0.0389
     41 H23         3.3921    2.2244   -2.4690 H         1 HST         0.0389
     42 H24         3.2989    1.4474   -0.8569 H         1 HST         0.0389
@<TRIPOS>BOND
     1    1    2 1
     2    1   13 1
     3    2   14 1
     4    3    4 1
     5    3   13 1
     6    4   15 1
     7    5    6 1
     8    5   14 1
     9    6   16 1
    10    7    8 1
    11    7   15 1
    12    8   17 1
    13    9   10 1
    14    9   16 1
    15   10   18 1
    16   11   12 1
    17   11   17 1
    18   12   18 1
    19    1   19 1
    20    1   20 1
    21    2   21 1
    22    2   22 1
    23    3   23 1
    24    3   24 1
    25    4   25 1
    26    4   26 1
    27    5   27 1
    28    5   28 1
    29    6   29 1
    30    6   30 1
    31    7   31 1
    32    7   32 1
    33    8   33 1
    34    8   34 1
    35    9   35 1
    36    9   36 1
    37   10   37 1
    38   10   38 1
    39   11   39 1
    40   11   40 1
    41   12   41 1
    42   12   42 1
