@<TRIPOS>MOLECULE
water
    3     2     0     0     0
SMALL
USER_CHARGES

@<TRIPOS>ATOM
      1 O1         -0.2947   -0.2183    0.1542 O.3       1 T3P         0.0000
      2 H1         -0.0173    0.6747    0.4085 H         1 T3P         0.0000
      3 H2          0.3120   -0.4565   -0.5627 H         1 T3P         0.0000
@<TRIPOS>BOND
     1    1    2 1
     2    1    3 1
