@<TRIPOS>MOLECULE
toluene
   15    15     1     0     0
SMALL
No Charge or Current Charge


@<TRIPOS>ATOM
      1 C1          1.8850   -1.0360   -0.1120 ca        1 TOL     -0.135100
      2 C2          0.8070   -0.4630    0.5610 ca        1 TOL     -0.126700
      3 C3          2.9210   -1.6310    0.6080 ca        1 TOL     -0.126700
      4 C4          0.7640   -0.4840    1.9550 ca        1 TOL     -0.130700
      5 C5          2.8780   -1.6520    2.0020 ca        1 TOL     -0.130700
      6 C6          1.8000   -1.0790    2.6760 ca        1 TOL     -0.077400
      7 C7          1.7550   -1.1010    4.1660 c3        1 TOL     -0.054200
      8 H1          1.9180   -1.0210   -1.1980 ha        1 TOL      0.129300
      9 H2         -0.0010   -0.0010    0.0000 ha        1 TOL      0.130100
     10 H3          3.7600   -2.0780    0.0840 ha        1 TOL      0.130100
     11 H4         -0.0800   -0.0350    2.4710 ha        1 TOL      0.130100
     12 H5          3.6900   -2.1170    2.5550 ha        1 TOL      0.130100
     13 H6          1.2470   -2.0070    4.5190 hc        1 TOL      0.044000
     14 H7          2.7650   -1.0790    4.5960 hc        1 TOL      0.044000
     15 H8          1.2220   -0.2270    4.5620 hc        1 TOL      0.044000
@<TRIPOS>BOND
     1    1    2 ar  
     2    1    3 ar  
     3    2    4 ar  
     4    3    5 ar  
     5    4    6 ar  
     6    5    6 ar  
     7    6    7 1   
     8    1    8 1   
     9    2    9 1   
    10    3   10 1   
    11    4   11 1   
    12    5   12 1   
    13    7   13 1   
    14    7   14 1   
    15    7   15 1   
@<TRIPOS>SUBSTRUCTURE
     1 TOL         1 TEMP              0 ****  ****    0 ROOT
